export LSF_DOCKER_VOLUMES="/storage1/fs1/rvmartin/Active/GEOS-Chem-shared/ExtData:/ExtData"
